data_image0
_cell_length_a       6.12683
_cell_length_b       6.12674
_cell_length_c       5.72096
_cell_angle_alpha    90
_cell_angle_beta     90
_cell_angle_gamma    120

_symmetry_space_group_name_H-M    "P 1"
_symmetry_int_tables_number       1

loop_
  _symmetry_equiv_pos_as_xyz
  'x, y, z'

loop_
  _atom_site_label
  _atom_site_occupancy
  _atom_site_fract_x
  _atom_site_fract_y
  _atom_site_fract_z
  _atom_site_thermal_displace_type
  _atom_site_B_iso_or_equiv
  _atom_site_type_symbol
  Cr1      1.0000 0.00000  0.00000  0.00000  Biso   1.000  Cr
  Cr2      1.0000 0.00000  0.00000  0.50000  Biso   1.000  Cr
  Ge1      1.0000 0.19200  0.38400  0.25000  Biso   1.000  Ge
  Ge2      1.0000 0.19200  0.80800  0.25000  Biso   1.000  Ge
  Ge3      1.0000 0.61600  0.80800  0.25000  Biso   1.000  Ge
  Ge4      1.0000 0.38400  0.19200  0.75000  Biso   1.000  Ge
  Ge5      1.0000 0.80800  0.19200  0.75000  Biso   1.000  Ge
  Ge6      1.0000 0.80800  0.61600  0.75000  Biso   1.000  Ge
  Sm1      1.0000 0.66700  0.33300  0.25000  Biso   1.000  Sm
  Sm2      1.0000 0.33300  0.66700  0.75000  Biso   1.000  Sm
