data_image0
_cell_length_a       7.88805
_cell_length_b       7.88805
_cell_length_c       3.99397
_cell_angle_alpha    90
_cell_angle_beta     90
_cell_angle_gamma    90

_symmetry_space_group_name_H-M    "P 1"
_symmetry_int_tables_number       1

loop_
  _symmetry_equiv_pos_as_xyz
  'x, y, z'

loop_
  _atom_site_label
  _atom_site_occupancy
  _atom_site_fract_x
  _atom_site_fract_y
  _atom_site_fract_z
  _atom_site_thermal_displace_type
  _atom_site_B_iso_or_equiv
  _atom_site_type_symbol
  Cd1      1.0000 0.00000  0.00000  0.00000  Biso   1.000  Cd
  Cd2      1.0000 0.50000  0.50000  0.00000  Biso   1.000  Cd
  Ce1      1.0000 0.32600  0.17400  0.50000  Biso   1.000  Ce
  Ce2      1.0000 0.82600  0.32600  0.50000  Biso   1.000  Ce
  Ce3      1.0000 0.17400  0.67400  0.50000  Biso   1.000  Ce
  Ce4      1.0000 0.67400  0.82600  0.50000  Biso   1.000  Ce
  Pd1      1.0000 0.62800  0.12800  0.00000  Biso   1.000  Pd
  Pd2      1.0000 0.12800  0.37200  0.00000  Biso   1.000  Pd
  Pd3      1.0000 0.87200  0.62800  0.00000  Biso   1.000  Pd
  Pd4      1.0000 0.37200  0.87200  0.00000  Biso   1.000  Pd
