data_image0
_cell_length_a       4.3161
_cell_length_b       4.3161
_cell_length_c       10.0315
_cell_angle_alpha    90
_cell_angle_beta     90
_cell_angle_gamma    90

_symmetry_space_group_name_H-M    "P 1"
_symmetry_int_tables_number       1

loop_
  _symmetry_equiv_pos_as_xyz
  'x, y, z'

loop_
  _atom_site_label
  _atom_site_occupancy
  _atom_site_fract_x
  _atom_site_fract_y
  _atom_site_fract_z
  _atom_site_thermal_displace_type
  _atom_site_B_iso_or_equiv
  _atom_site_type_symbol
  As1      1.0000 0.25000  0.25000  0.13600  Biso   1.000  As
  As2      1.0000 0.75000  0.25000  0.50000  Biso   1.000  As
  As3      1.0000 0.25000  0.75000  0.50000  Biso   1.000  As
  As4      1.0000 0.75000  0.75000  0.86400  Biso   1.000  As
  Ce1      1.0000 0.75000  0.75000  0.25400  Biso   1.000  Ce
  Ce2      1.0000 0.25000  0.25000  0.74600  Biso   1.000  Ce
  Rh1      1.0000 0.75000  0.25000  0.00000  Biso   1.000  Rh
  Rh2      1.0000 0.25000  0.75000  0.00000  Biso   1.000  Rh
  Rh3      1.0000 0.25000  0.25000  0.38000  Biso   1.000  Rh
  Rh4      1.0000 0.75000  0.75000  0.62000  Biso   1.000  Rh
