data_image0
_cell_length_a       4.42239
_cell_length_b       6.29872
_cell_length_c       7.88411
_cell_angle_alpha    113.544
_cell_angle_beta     106.288
_cell_angle_gamma    90

_symmetry_space_group_name_H-M    "P 1"
_symmetry_int_tables_number       1

loop_
  _symmetry_equiv_pos_as_xyz
  'x, y, z'

loop_
  _atom_site_label
  _atom_site_occupancy
  _atom_site_fract_x
  _atom_site_fract_y
  _atom_site_fract_z
  _atom_site_thermal_displace_type
  _atom_site_B_iso_or_equiv
  _atom_site_type_symbol
  Al1      1.0000 0.50000  0.00000  0.00000  Biso   1.000  Al
  Al2      1.0000 0.50000  0.50000  0.00000  Biso   1.000  Al
  Al3      1.0000 0.11200  0.36200  0.22400  Biso   1.000  Al
  Al4      1.0000 0.69800  0.23400  0.39500  Biso   1.000  Al
  Al5      1.0000 0.69800  0.66200  0.39500  Biso   1.000  Al
  Al6      1.0000 0.30200  0.33800  0.60500  Biso   1.000  Al
  Al7      1.0000 0.30200  0.76600  0.60500  Biso   1.000  Al
  Al8      1.0000 0.88800  0.63800  0.77600  Biso   1.000  Al
  Tb1      1.0000 0.11300  0.86300  0.22600  Biso   1.000  Tb
  Tb2      1.0000 0.88700  0.13700  0.77400  Biso   1.000  Tb
