data_image0
_cell_length_a       3.94201
_cell_length_b       6.67063
_cell_length_c       9.49051
_cell_angle_alpha    91.5532
_cell_angle_beta     90
_cell_angle_gamma    107.186

_symmetry_space_group_name_H-M    "P 1"
_symmetry_int_tables_number       1

loop_
  _symmetry_equiv_pos_as_xyz
  'x, y, z'

loop_
  _atom_site_label
  _atom_site_occupancy
  _atom_site_fract_x
  _atom_site_fract_y
  _atom_site_fract_z
  _atom_site_thermal_displace_type
  _atom_site_B_iso_or_equiv
  _atom_site_type_symbol
  Bi1      1.0000 0.78500  0.57100  0.19800  Biso   1.000  Bi
  Bi2      1.0000 0.21500  0.42900  0.80200  Biso   1.000  Bi
  Br1      1.0000 0.13400  0.26800  0.43500  Biso   1.000  Br
  Br2      1.0000 0.86600  0.73200  0.56500  Biso   1.000  Br
  Mn1      1.0000 0.50000  0.00000  0.00000  Biso   1.000  Mn
  Mn2      1.0000 0.50000  0.00000  0.50000  Biso   1.000  Mn
  S1       1.0000 0.13500  0.27100  0.05410  Biso   1.000  S 
  S2       1.0000 0.42900  0.85800  0.24500  Biso   1.000  S 
  S3       1.0000 0.57100  0.14200  0.75500  Biso   1.000  S 
  S4       1.0000 0.86500  0.72900  0.94600  Biso   1.000  S 
