data_image0
_cell_length_a       3.95588
_cell_length_b       5.86314
_cell_length_c       7.20501
_cell_angle_alpha    90
_cell_angle_beta     90
_cell_angle_gamma    70.2844

_symmetry_space_group_name_H-M    "P 1"
_symmetry_int_tables_number       1

loop_
  _symmetry_equiv_pos_as_xyz
  'x, y, z'

loop_
  _atom_site_label
  _atom_site_occupancy
  _atom_site_fract_x
  _atom_site_fract_y
  _atom_site_fract_z
  _atom_site_thermal_displace_type
  _atom_site_B_iso_or_equiv
  _atom_site_type_symbol
  C1       1.0000 0.50000  0.00000  0.00000  Biso   1.000  C 
  C2       1.0000 0.50000  0.00000  0.50000  Biso   1.000  C 
  Ce1      1.0000 0.95300  0.09410  0.25000  Biso   1.000  Ce
  Ce2      1.0000 0.04700  0.90600  0.75000  Biso   1.000  Ce
  P1       1.0000 0.22900  0.54100  0.25000  Biso   1.000  P 
  P2       1.0000 0.77100  0.45900  0.75000  Biso   1.000  P 
  Ru1      1.0000 0.66800  0.66500  0.05510  Biso   1.000  Ru
  Ru2      1.0000 0.66800  0.66500  0.44500  Biso   1.000  Ru
  Ru3      1.0000 0.33200  0.33500  0.55500  Biso   1.000  Ru
  Ru4      1.0000 0.33200  0.33500  0.94500  Biso   1.000  Ru
