data_image0
_cell_length_a       4.76175
_cell_length_b       7.43467
_cell_length_c       9.70582
_cell_angle_alpha    90
_cell_angle_beta     75.8002
_cell_angle_gamma    90

_symmetry_space_group_name_H-M    "P 1"
_symmetry_int_tables_number       1

loop_
  _symmetry_equiv_pos_as_xyz
  'x, y, z'

loop_
  _atom_site_label
  _atom_site_occupancy
  _atom_site_fract_x
  _atom_site_fract_y
  _atom_site_fract_z
  _atom_site_thermal_displace_type
  _atom_site_B_iso_or_equiv
  _atom_site_type_symbol
  Ba1      1.0000 0.30200  0.52500  0.39500  Biso   1.000  Ba
  Ba2      1.0000 0.69800  0.02460  0.60500  Biso   1.000  Ba
  Cd1      1.0000 0.90700  0.89400  0.18600  Biso   1.000  Cd
  Cd2      1.0000 0.09320  0.39400  0.81400  Biso   1.000  Cd
  Sb1      1.0000 0.94100  0.50300  0.11800  Biso   1.000  Sb
  Sb2      1.0000 0.33400  0.01080  0.33200  Biso   1.000  Sb
  Sb3      1.0000 0.66600  0.51100  0.66800  Biso   1.000  Sb
  Sb4      1.0000 0.05900  0.00332  0.88200  Biso   1.000  Sb
  Yb1      1.0000 0.48000  0.22400  0.03960  Biso   1.000  Yb
  Yb2      1.0000 0.52000  0.72400  0.96000  Biso   1.000  Yb
