data_image0
_cell_length_a       4.60184
_cell_length_b       4.60184
_cell_length_c       11.7984
_cell_angle_alpha    101.246
_cell_angle_beta     101.246
_cell_angle_gamma    90

_symmetry_space_group_name_H-M    "P 1"
_symmetry_int_tables_number       1

loop_
  _symmetry_equiv_pos_as_xyz
  'x, y, z'

loop_
  _atom_site_label
  _atom_site_occupancy
  _atom_site_fract_x
  _atom_site_fract_y
  _atom_site_fract_z
  _atom_site_thermal_displace_type
  _atom_site_B_iso_or_equiv
  _atom_site_type_symbol
  Ce1      1.0000 0.00000  0.00000  0.00000  Biso   1.000  Ce
  In1      1.0000 0.50000  0.50000  0.00000  Biso   1.000  In
  In2      1.0000 0.60900  0.10900  0.21900  Biso   1.000  In
  In3      1.0000 0.10900  0.60900  0.21900  Biso   1.000  In
  In4      1.0000 0.75000  0.25000  0.50000  Biso   1.000  In
  In5      1.0000 0.25000  0.75000  0.50000  Biso   1.000  In
  In6      1.0000 0.89100  0.39100  0.78100  Biso   1.000  In
  In7      1.0000 0.39100  0.89100  0.78100  Biso   1.000  In
  Pt1      1.0000 0.68200  0.68200  0.36400  Biso   1.000  Pt
  Pt2      1.0000 0.31800  0.31800  0.63600  Biso   1.000  Pt
