data_image0
_cell_length_a       7.03679
_cell_length_b       7.26324
_cell_length_c       8.74882
_cell_angle_alpha    114.525
_cell_angle_beta     113.713
_cell_angle_gamma    90

_symmetry_space_group_name_H-M    "P 1"
_symmetry_int_tables_number       1

loop_
  _symmetry_equiv_pos_as_xyz
  'x, y, z'

loop_
  _atom_site_label
  _atom_site_occupancy
  _atom_site_fract_x
  _atom_site_fract_y
  _atom_site_fract_z
  _atom_site_thermal_displace_type
  _atom_site_B_iso_or_equiv
  _atom_site_type_symbol
  Ba1      1.0000 0.13700  0.34000  0.27400  Biso   1.000  Ba
  Ba2      1.0000 0.63700  0.93500  0.27400  Biso   1.000  Ba
  Ba3      1.0000 0.36300  0.06510  0.72600  Biso   1.000  Ba
  Ba4      1.0000 0.86300  0.66000  0.72600  Biso   1.000  Ba
  Sb1      1.0000 0.61100  0.40400  0.22200  Biso   1.000  Sb
  Sb2      1.0000 0.11100  0.81800  0.22200  Biso   1.000  Sb
  Sb3      1.0000 0.88900  0.18200  0.77800  Biso   1.000  Sb
  Sb4      1.0000 0.38900  0.59600  0.77800  Biso   1.000  Sb
  Zn1      1.0000 0.25000  0.50000  0.00000  Biso   1.000  Zn
  Zn2      1.0000 0.75000  0.50000  0.00000  Biso   1.000  Zn
