data_image0
_cell_length_a       5.59348
_cell_length_b       5.59348
_cell_length_c       6.14505
_cell_angle_alpha    105.422
_cell_angle_beta     105.422
_cell_angle_gamma    114.564

_symmetry_space_group_name_H-M    "P 1"
_symmetry_int_tables_number       1

loop_
  _symmetry_equiv_pos_as_xyz
  'x, y, z'

loop_
  _atom_site_label
  _atom_site_occupancy
  _atom_site_fract_x
  _atom_site_fract_y
  _atom_site_fract_z
  _atom_site_thermal_displace_type
  _atom_site_B_iso_or_equiv
  _atom_site_type_symbol
  B1       1.0000 0.67900  0.32100  0.00000  Biso   1.000  B 
  B2       1.0000 0.32100  0.67900  0.00000  Biso   1.000  B 
  B3       1.0000 0.42900  0.57100  0.50000  Biso   1.000  B 
  B4       1.0000 0.07050  0.92900  0.50000  Biso   1.000  B 
  Ir1      1.0000 0.12100  0.62100  0.24100  Biso   1.000  Ir
  Ir2      1.0000 0.62900  0.62900  0.25900  Biso   1.000  Ir
  Ir3      1.0000 0.37100  0.37100  0.74100  Biso   1.000  Ir
  Ir4      1.0000 0.37900  0.87900  0.75900  Biso   1.000  Ir
  Nd1      1.0000 0.00000  0.00000  0.00000  Biso   1.000  Nd
  Nd2      1.0000 0.75000  0.25000  0.50000  Biso   1.000  Nd
