data_image0
_cell_length_a       5.63937
_cell_length_b       5.63937
_cell_length_c       6.00005
_cell_angle_alpha    108.393
_cell_angle_beta     108.393
_cell_angle_gamma    109.182

_symmetry_space_group_name_H-M    "P 1"
_symmetry_int_tables_number       1

loop_
  _symmetry_equiv_pos_as_xyz
  'x, y, z'

loop_
  _atom_site_label
  _atom_site_occupancy
  _atom_site_fract_x
  _atom_site_fract_y
  _atom_site_fract_z
  _atom_site_thermal_displace_type
  _atom_site_B_iso_or_equiv
  _atom_site_type_symbol
  B1       1.0000 0.68100  0.31900  0.00000  Biso   1.000  B 
  B2       1.0000 0.31900  0.68100  0.00000  Biso   1.000  B 
  B3       1.0000 0.93200  0.06840  0.50000  Biso   1.000  B 
  B4       1.0000 0.56800  0.43200  0.50000  Biso   1.000  B 
  Pr1      1.0000 0.00000  0.00000  0.00000  Biso   1.000  Pr
  Pr2      1.0000 0.25000  0.75000  0.50000  Biso   1.000  Pr
  Ru1      1.0000 0.61300  0.11300  0.22700  Biso   1.000  Ru
  Ru2      1.0000 0.63600  0.63600  0.27300  Biso   1.000  Ru
  Ru3      1.0000 0.36400  0.36400  0.72700  Biso   1.000  Ru
  Ru4      1.0000 0.88700  0.38700  0.77300  Biso   1.000  Ru
