data_image0
_cell_length_a       7.65332
_cell_length_b       7.65332
_cell_length_c       3.8224
_cell_angle_alpha    90
_cell_angle_beta     90
_cell_angle_gamma    90

_symmetry_space_group_name_H-M    "P 1"
_symmetry_int_tables_number       1

loop_
  _symmetry_equiv_pos_as_xyz
  'x, y, z'

loop_
  _atom_site_label
  _atom_site_occupancy
  _atom_site_fract_x
  _atom_site_fract_y
  _atom_site_fract_z
  _atom_site_thermal_displace_type
  _atom_site_B_iso_or_equiv
  _atom_site_type_symbol
  Mg1      1.0000 0.00000  0.00000  0.00000  Biso   1.000  Mg
  Mg2      1.0000 0.50000  0.50000  0.00000  Biso   1.000  Mg
  Pd1      1.0000 0.63200  0.13200  0.00000  Biso   1.000  Pd
  Pd2      1.0000 0.13200  0.36800  0.00000  Biso   1.000  Pd
  Pd3      1.0000 0.86800  0.63200  0.00000  Biso   1.000  Pd
  Pd4      1.0000 0.36800  0.86800  0.00000  Biso   1.000  Pd
  Tb1      1.0000 0.33100  0.16900  0.50000  Biso   1.000  Tb
  Tb2      1.0000 0.83100  0.33100  0.50000  Biso   1.000  Tb
  Tb3      1.0000 0.16900  0.66900  0.50000  Biso   1.000  Tb
  Tb4      1.0000 0.66900  0.83100  0.50000  Biso   1.000  Tb
