data_image0
_cell_length_a       5.08774
_cell_length_b       5.95433
_cell_length_c       6.61242
_cell_angle_alpha    116.759
_cell_angle_beta     112.626
_cell_angle_gamma    90

_symmetry_space_group_name_H-M    "P 1"
_symmetry_int_tables_number       1

loop_
  _symmetry_equiv_pos_as_xyz
  'x, y, z'

loop_
  _atom_site_label
  _atom_site_occupancy
  _atom_site_fract_x
  _atom_site_fract_y
  _atom_site_fract_z
  _atom_site_thermal_displace_type
  _atom_site_B_iso_or_equiv
  _atom_site_type_symbol
  Fe1      1.0000 0.25000  0.00000  0.00000  Biso   1.000  Fe
  Fe2      1.0000 0.75000  0.00000  0.00000  Biso   1.000  Fe
  Pd1      1.0000 0.11100  0.48900  0.22200  Biso   1.000  Pd
  Pd2      1.0000 0.61100  0.73300  0.22200  Biso   1.000  Pd
  Pd3      1.0000 0.38900  0.26700  0.77800  Biso   1.000  Pd
  Pd4      1.0000 0.88900  0.51100  0.77800  Biso   1.000  Pd
  Se1      1.0000 0.64400  0.34700  0.28700  Biso   1.000  Se
  Se2      1.0000 0.14400  0.94000  0.28700  Biso   1.000  Se
  Se3      1.0000 0.85600  0.05980  0.71300  Biso   1.000  Se
  Se4      1.0000 0.35600  0.65300  0.71300  Biso   1.000  Se
