data_image0
_cell_length_a       3.48228
_cell_length_b       3.97329
_cell_length_c       10.809
_cell_angle_alpha    100.591
_cell_angle_beta     99.2697
_cell_angle_gamma    90

_symmetry_space_group_name_H-M    "P 1"
_symmetry_int_tables_number       1

loop_
  _symmetry_equiv_pos_as_xyz
  'x, y, z'

loop_
  _atom_site_label
  _atom_site_occupancy
  _atom_site_fract_x
  _atom_site_fract_y
  _atom_site_fract_z
  _atom_site_thermal_displace_type
  _atom_site_B_iso_or_equiv
  _atom_site_type_symbol
  Fe1      1.0000 0.09700  0.09700  0.19400  Biso   1.000  Fe
  Fe2      1.0000 0.90300  0.90300  0.80600  Biso   1.000  Fe
  O1       1.0000 0.00000  0.00000  0.00000  Biso   1.000  O 
  O2       1.0000 0.09580  0.59600  0.19200  Biso   1.000  O 
  O3       1.0000 0.19300  0.19300  0.38600  Biso   1.000  O 
  O4       1.0000 0.80700  0.80700  0.61400  Biso   1.000  O 
  O5       1.0000 0.90400  0.40400  0.80800  Biso   1.000  O 
  Sr1      1.0000 0.50000  0.50000  0.00000  Biso   1.000  Sr
  Sr2      1.0000 0.68800  0.68800  0.37600  Biso   1.000  Sr
  Sr3      1.0000 0.31200  0.31200  0.62400  Biso   1.000  Sr
