data_image0
_cell_length_a       4.99235
_cell_length_b       4.99235
_cell_length_c       12.3303
_cell_angle_alpha    101.68
_cell_angle_beta     101.68
_cell_angle_gamma    90

_symmetry_space_group_name_H-M    "P 1"
_symmetry_int_tables_number       1

loop_
  _symmetry_equiv_pos_as_xyz
  'x, y, z'

loop_
  _atom_site_label
  _atom_site_occupancy
  _atom_site_fract_x
  _atom_site_fract_y
  _atom_site_fract_z
  _atom_site_thermal_displace_type
  _atom_site_B_iso_or_equiv
  _atom_site_type_symbol
  K1       1.0000 0.19900  0.19900  0.39700  Biso   1.000  K 
  K2       1.0000 0.80100  0.80100  0.60300  Biso   1.000  K 
  Mg1      1.0000 0.50000  0.50000  0.00000  Biso   1.000  Mg
  Mg2      1.0000 0.57900  0.07920  0.15800  Biso   1.000  Mg
  Mg3      1.0000 0.07920  0.57900  0.15800  Biso   1.000  Mg
  Mg4      1.0000 0.92100  0.42100  0.84200  Biso   1.000  Mg
  Mg5      1.0000 0.42100  0.92100  0.84200  Biso   1.000  Mg
  Sn1      1.0000 0.00000  0.00000  0.00000  Biso   1.000  Sn
  Sn2      1.0000 0.64100  0.64100  0.28300  Biso   1.000  Sn
  Sn3      1.0000 0.35900  0.35900  0.71700  Biso   1.000  Sn
