data_image0
_cell_length_a       5.87926
_cell_length_b       5.87926
_cell_length_c       8.25968
_cell_angle_alpha    102.743
_cell_angle_beta     102.743
_cell_angle_gamma    59.0562

_symmetry_space_group_name_H-M    "P 1"
_symmetry_int_tables_number       1

loop_
  _symmetry_equiv_pos_as_xyz
  'x, y, z'

loop_
  _atom_site_label
  _atom_site_occupancy
  _atom_site_fract_x
  _atom_site_fract_y
  _atom_site_fract_z
  _atom_site_thermal_displace_type
  _atom_site_B_iso_or_equiv
  _atom_site_type_symbol
  Eu1      1.0000 0.49800  0.79700  0.14800  Biso   1.000  Eu
  Eu2      1.0000 0.20300  0.50200  0.35200  Biso   1.000  Eu
  Eu3      1.0000 0.79700  0.49800  0.64800  Biso   1.000  Eu
  Eu4      1.0000 0.50200  0.20300  0.85200  Biso   1.000  Eu
  In1      1.0000 0.84800  0.15200  0.25000  Biso   1.000  In
  In2      1.0000 0.15200  0.84800  0.75000  Biso   1.000  In
  Pt1      1.0000 0.99900  0.27500  0.00287  Biso   1.000  Pt
  Pt2      1.0000 0.72500  0.00084  0.49700  Biso   1.000  Pt
  Pt3      1.0000 0.27500  0.99900  0.50300  Biso   1.000  Pt
  Pt4      1.0000 0.00084  0.72500  0.99700  Biso   1.000  Pt
