data_image0
_cell_length_a       4.0571
_cell_length_b       7.00286
_cell_length_c       10.1544
_cell_angle_alpha    91.544
_cell_angle_beta     90
_cell_angle_gamma    106.838

_symmetry_space_group_name_H-M    "P 1"
_symmetry_int_tables_number       1

loop_
  _symmetry_equiv_pos_as_xyz
  'x, y, z'

loop_
  _atom_site_label
  _atom_site_occupancy
  _atom_site_fract_x
  _atom_site_fract_y
  _atom_site_fract_z
  _atom_site_thermal_displace_type
  _atom_site_B_iso_or_equiv
  _atom_site_type_symbol
  I1       1.0000 0.36600  0.73200  0.07450  Biso   1.000  I 
  I2       1.0000 0.63400  0.26800  0.92500  Biso   1.000  I 
  Mn1      1.0000 0.00000  0.00000  0.00000  Biso   1.000  Mn
  Mn2      1.0000 0.00000  0.00000  0.50000  Biso   1.000  Mn
  Sb1      1.0000 0.70800  0.41600  0.31600  Biso   1.000  Sb
  Sb2      1.0000 0.29200  0.58400  0.68400  Biso   1.000  Sb
  Se1      1.0000 0.07290  0.14600  0.25900  Biso   1.000  Se
  Se2      1.0000 0.36400  0.72700  0.44400  Biso   1.000  Se
  Se3      1.0000 0.63600  0.27300  0.55600  Biso   1.000  Se
  Se4      1.0000 0.92700  0.85400  0.74100  Biso   1.000  Se
