data_image0
_cell_length_a       4.40574
_cell_length_b       7.41718
_cell_length_c       8.60315
_cell_angle_alpha    90
_cell_angle_beta     75.164
_cell_angle_gamma    90

_symmetry_space_group_name_H-M    "P 1"
_symmetry_int_tables_number       1

loop_
  _symmetry_equiv_pos_as_xyz
  'x, y, z'

loop_
  _atom_site_label
  _atom_site_occupancy
  _atom_site_fract_x
  _atom_site_fract_y
  _atom_site_fract_z
  _atom_site_thermal_displace_type
  _atom_site_B_iso_or_equiv
  _atom_site_type_symbol
  As1      1.0000 0.93500  0.55500  0.12900  Biso   1.000  As
  As2      1.0000 0.32100  0.02220  0.35700  Biso   1.000  As
  As3      1.0000 0.67900  0.52200  0.64300  Biso   1.000  As
  As4      1.0000 0.06460  0.05520  0.87100  Biso   1.000  As
  Cd1      1.0000 0.90400  0.92500  0.19200  Biso   1.000  Cd
  Cd2      1.0000 0.09620  0.42500  0.80800  Biso   1.000  Cd
  Eu1      1.0000 0.46600  0.26400  0.06710  Biso   1.000  Eu
  Eu2      1.0000 0.29800  0.60900  0.40400  Biso   1.000  Eu
  Eu3      1.0000 0.70200  0.10900  0.59600  Biso   1.000  Eu
  Eu4      1.0000 0.53400  0.76400  0.93300  Biso   1.000  Eu
