data_image0
_cell_length_a       3.11244
_cell_length_b       5.28938
_cell_length_c       7.69574
_cell_angle_alpha    90
_cell_angle_beta     90
_cell_angle_gamma    72.8895

_symmetry_space_group_name_H-M    "P 1"
_symmetry_int_tables_number       1

loop_
  _symmetry_equiv_pos_as_xyz
  'x, y, z'

loop_
  _atom_site_label
  _atom_site_occupancy
  _atom_site_fract_x
  _atom_site_fract_y
  _atom_site_fract_z
  _atom_site_thermal_displace_type
  _atom_site_B_iso_or_equiv
  _atom_site_type_symbol
  As1      1.0000 0.74200  0.51500  0.25000  Biso   1.000  As
  As2      1.0000 0.25800  0.48500  0.75000  Biso   1.000  As
  C1       1.0000 0.00000  0.00000  0.00000  Biso   1.000  C 
  C2       1.0000 0.00000  0.00000  0.50000  Biso   1.000  C 
  V1       1.0000 0.37400  0.25300  0.05040  Biso   1.000  V 
  V2       1.0000 0.04450  0.91100  0.25000  Biso   1.000  V 
  V3       1.0000 0.37400  0.25300  0.45000  Biso   1.000  V 
  V4       1.0000 0.62600  0.74700  0.55000  Biso   1.000  V 
  V5       1.0000 0.95600  0.08900  0.75000  Biso   1.000  V 
  V6       1.0000 0.62600  0.74700  0.95000  Biso   1.000  V 
