data_image0
_cell_length_a       6.1878
_cell_length_b       6.1878
_cell_length_c       6.1878
_cell_angle_alpha    59.9196
_cell_angle_beta     59.9196
_cell_angle_gamma    59.9196

_symmetry_space_group_name_H-M    "P 1"
_symmetry_int_tables_number       1

loop_
  _symmetry_equiv_pos_as_xyz
  'x, y, z'

loop_
  _atom_site_label
  _atom_site_occupancy
  _atom_site_fract_x
  _atom_site_fract_y
  _atom_site_fract_z
  _atom_site_thermal_displace_type
  _atom_site_B_iso_or_equiv
  _atom_site_type_symbol
  Ba1      1.0000 0.00003  0.00003  0.00003  Biso   1.000  Ba
  Ba2      1.0000 0.50000  0.50000  0.50000  Biso   1.000  Ba
  Tm1      1.0000 0.25000  0.25000  0.25000  Biso   1.000  Tm
  U1       1.0000 0.75000  0.75000  0.75000  Biso   1.000  U 
