data_image0
_cell_length_a       7.0239
_cell_length_b       7.33222
_cell_length_c       8.69798
_cell_angle_alpha    114.929
_cell_angle_beta     113.814
_cell_angle_gamma    90

_symmetry_space_group_name_H-M    "P 1"
_symmetry_int_tables_number       1

loop_
  _symmetry_equiv_pos_as_xyz
  'x, y, z'

loop_
  _atom_site_label
  _atom_site_occupancy
  _atom_site_fract_x
  _atom_site_fract_y
  _atom_site_fract_z
  _atom_site_thermal_displace_type
  _atom_site_B_iso_or_equiv
  _atom_site_type_symbol
  K1       1.0000 0.14100  0.46000  0.28200  Biso   1.000  K 
  K2       1.0000 0.64100  0.82200  0.28200  Biso   1.000  K 
  K3       1.0000 0.35900  0.17800  0.71800  Biso   1.000  K 
  K4       1.0000 0.85900  0.54000  0.71800  Biso   1.000  K 
  Te1      1.0000 0.60700  0.30200  0.21400  Biso   1.000  Te
  Te2      1.0000 0.10700  0.91300  0.21400  Biso   1.000  Te
  Te3      1.0000 0.89300  0.08750  0.78600  Biso   1.000  Te
  Te4      1.0000 0.39300  0.69800  0.78600  Biso   1.000  Te
  Zn1      1.0000 0.25000  0.00000  0.00000  Biso   1.000  Zn
  Zn2      1.0000 0.75000  0.00000  0.00000  Biso   1.000  Zn
