data_image0
_cell_length_a       4.4848
_cell_length_b       7.64116
_cell_length_c       8.80573
_cell_angle_alpha    90
_cell_angle_beta     75.247
_cell_angle_gamma    90

_symmetry_space_group_name_H-M    "P 1"
_symmetry_int_tables_number       1

loop_
  _symmetry_equiv_pos_as_xyz
  'x, y, z'

loop_
  _atom_site_label
  _atom_site_occupancy
  _atom_site_fract_x
  _atom_site_fract_y
  _atom_site_fract_z
  _atom_site_thermal_displace_type
  _atom_site_B_iso_or_equiv
  _atom_site_type_symbol
  As1      1.0000 0.93700  0.55800  0.12600  Biso   1.000  As
  As2      1.0000 0.32500  0.01430  0.35100  Biso   1.000  As
  As3      1.0000 0.67500  0.51400  0.64900  Biso   1.000  As
  As4      1.0000 0.06310  0.05840  0.87400  Biso   1.000  As
  Cd1      1.0000 0.90400  0.92200  0.19100  Biso   1.000  Cd
  Cd2      1.0000 0.09570  0.42200  0.80900  Biso   1.000  Cd
  Sr1      1.0000 0.46600  0.26500  0.06810  Biso   1.000  Sr
  Sr2      1.0000 0.29700  0.60500  0.40600  Biso   1.000  Sr
  Sr3      1.0000 0.70300  0.10500  0.59400  Biso   1.000  Sr
  Sr4      1.0000 0.53400  0.76500  0.93200  Biso   1.000  Sr
