data_image0
_cell_length_a       4.11454
_cell_length_b       4.11464
_cell_length_c       14.3112
_cell_angle_alpha    90
_cell_angle_beta     90
_cell_angle_gamma    119.999

_symmetry_space_group_name_H-M    "P 1"
_symmetry_int_tables_number       1

loop_
  _symmetry_equiv_pos_as_xyz
  'x, y, z'

loop_
  _atom_site_label
  _atom_site_occupancy
  _atom_site_fract_x
  _atom_site_fract_y
  _atom_site_fract_z
  _atom_site_thermal_displace_type
  _atom_site_B_iso_or_equiv
  _atom_site_type_symbol
  As1      1.0000 0.00000  0.00000  0.00000  Biso   1.000  As
  As2      1.0000 0.66700  0.33300  0.25000  Biso   1.000  As
  As3      1.0000 0.00000  0.00000  0.50000  Biso   1.000  As
  As4      1.0000 0.33300  0.66700  0.75000  Biso   1.000  As
  Ni1      1.0000 0.00001  0.00001  0.25000  Biso   1.000  Ni
  Ni2      1.0000 1.00000  0.00000  0.75000  Biso   1.000  Ni
  Tb1      1.0000 0.33300  0.66700  0.11700  Biso   1.000  Tb
  Tb2      1.0000 0.33300  0.66700  0.38300  Biso   1.000  Tb
  Tb3      1.0000 0.66700  0.33300  0.61700  Biso   1.000  Tb
  Tb4      1.0000 0.66700  0.33300  0.88300  Biso   1.000  Tb
