data_image0
_cell_length_a       5.6783
_cell_length_b       5.6783
_cell_length_c       6.05054
_cell_angle_alpha    108.519
_cell_angle_beta     108.519
_cell_angle_gamma    108.851

_symmetry_space_group_name_H-M    "P 1"
_symmetry_int_tables_number       1

loop_
  _symmetry_equiv_pos_as_xyz
  'x, y, z'

loop_
  _atom_site_label
  _atom_site_occupancy
  _atom_site_fract_x
  _atom_site_fract_y
  _atom_site_fract_z
  _atom_site_thermal_displace_type
  _atom_site_B_iso_or_equiv
  _atom_site_type_symbol
  B1       1.0000 0.68300  0.31700  0.00000  Biso   1.000  B 
  B2       1.0000 0.31700  0.68300  0.00000  Biso   1.000  B 
  B3       1.0000 0.93300  0.06720  0.50000  Biso   1.000  B 
  B4       1.0000 0.56700  0.43300  0.50000  Biso   1.000  B 
  Ce1      1.0000 0.00000  0.00000  0.00000  Biso   1.000  Ce
  Ce2      1.0000 0.25000  0.75000  0.50000  Biso   1.000  Ce
  Os1      1.0000 0.61400  0.11400  0.22700  Biso   1.000  Os
  Os2      1.0000 0.63600  0.63600  0.27300  Biso   1.000  Os
  Os3      1.0000 0.36400  0.36400  0.72700  Biso   1.000  Os
  Os4      1.0000 0.88600  0.38600  0.77300  Biso   1.000  Os
