data_image0
_cell_length_a       3.07695
_cell_length_b       5.29484
_cell_length_c       7.1654
_cell_angle_alpha    90
_cell_angle_beta     90
_cell_angle_gamma    73.1084

_symmetry_space_group_name_H-M    "P 1"
_symmetry_int_tables_number       1

loop_
  _symmetry_equiv_pos_as_xyz
  'x, y, z'

loop_
  _atom_site_label
  _atom_site_occupancy
  _atom_site_fract_x
  _atom_site_fract_y
  _atom_site_fract_z
  _atom_site_thermal_displace_type
  _atom_site_B_iso_or_equiv
  _atom_site_type_symbol
  Ir1      1.0000 0.00000  0.00000  0.00000  Biso   1.000  Ir
  Ir2      1.0000 0.00000  0.00000  0.50000  Biso   1.000  Ir
  Na1      1.0000 0.74800  0.50300  0.25000  Biso   1.000  Na
  Na2      1.0000 0.25200  0.49700  0.75000  Biso   1.000  Na
  O1       1.0000 0.38300  0.23300  0.05940  Biso   1.000  O 
  O2       1.0000 0.07550  0.84900  0.25000  Biso   1.000  O 
  O3       1.0000 0.38300  0.23300  0.44100  Biso   1.000  O 
  O4       1.0000 0.61700  0.76700  0.55900  Biso   1.000  O 
  O5       1.0000 0.92400  0.15100  0.75000  Biso   1.000  O 
  O6       1.0000 0.61700  0.76700  0.94100  Biso   1.000  O 
