data_image0
_cell_length_a       4.939
_cell_length_b       4.8144
_cell_length_c       10.8366
_cell_angle_alpha    90
_cell_angle_beta     92.0185
_cell_angle_gamma    90

_symmetry_space_group_name_H-M    "P 1"
_symmetry_int_tables_number       1

loop_
  _symmetry_equiv_pos_as_xyz
  'x, y, z'

loop_
  _atom_site_label
  _atom_site_occupancy
  _atom_site_fract_x
  _atom_site_fract_y
  _atom_site_fract_z
  _atom_site_thermal_displace_type
  _atom_site_B_iso_or_equiv
  _atom_site_type_symbol
  Bi1      1.0000 0.20700  0.25000  0.12000  Biso   1.000  Bi
  Bi2      1.0000 0.75000  0.25000  0.49700  Biso   1.000  Bi
  Bi3      1.0000 0.25000  0.75000  0.50300  Biso   1.000  Bi
  Bi4      1.0000 0.79300  0.75000  0.88000  Biso   1.000  Bi
  Pd1      1.0000 0.30900  0.75000  1.00000  Biso   1.000  Pd
  Pd2      1.0000 0.69100  0.25000  0.00019  Biso   1.000  Pd
  Pd3      1.0000 0.24300  0.25000  0.37000  Biso   1.000  Pd
  Pd4      1.0000 0.75700  0.75000  0.63000  Biso   1.000  Pd
  Sr1      1.0000 0.74000  0.75000  0.23800  Biso   1.000  Sr
  Sr2      1.0000 0.26000  0.25000  0.76200  Biso   1.000  Sr
