data_image0
_cell_length_a       7.65995
_cell_length_b       7.65995
_cell_length_c       3.81376
_cell_angle_alpha    90
_cell_angle_beta     90
_cell_angle_gamma    90

_symmetry_space_group_name_H-M    "P 1"
_symmetry_int_tables_number       1

loop_
  _symmetry_equiv_pos_as_xyz
  'x, y, z'

loop_
  _atom_site_label
  _atom_site_occupancy
  _atom_site_fract_x
  _atom_site_fract_y
  _atom_site_fract_z
  _atom_site_thermal_displace_type
  _atom_site_B_iso_or_equiv
  _atom_site_type_symbol
  In1      1.0000 0.00000  0.00000  0.00000  Biso   1.000  In
  In2      1.0000 0.50000  0.50000  0.00000  Biso   1.000  In
  Np1      1.0000 0.32800  0.17200  0.50000  Biso   1.000  Np
  Np2      1.0000 0.82800  0.32800  0.50000  Biso   1.000  Np
  Np3      1.0000 0.17200  0.67200  0.50000  Biso   1.000  Np
  Np4      1.0000 0.67200  0.82800  0.50000  Biso   1.000  Np
  Pd1      1.0000 0.63100  0.13100  0.00000  Biso   1.000  Pd
  Pd2      1.0000 0.13100  0.36900  0.00000  Biso   1.000  Pd
  Pd3      1.0000 0.86900  0.63100  0.00000  Biso   1.000  Pd
  Pd4      1.0000 0.36900  0.86900  0.00000  Biso   1.000  Pd
