data_image0
_cell_length_a       3.11296
_cell_length_b       5.06418
_cell_length_c       7.52376
_cell_angle_alpha    90
_cell_angle_beta     90
_cell_angle_gamma    72.1003

_symmetry_space_group_name_H-M    "P 1"
_symmetry_int_tables_number       1

loop_
  _symmetry_equiv_pos_as_xyz
  'x, y, z'

loop_
  _atom_site_label
  _atom_site_occupancy
  _atom_site_fract_x
  _atom_site_fract_y
  _atom_site_fract_z
  _atom_site_thermal_displace_type
  _atom_site_B_iso_or_equiv
  _atom_site_type_symbol
  C1       1.0000 0.00000  0.00000  0.00000  Biso   1.000  C 
  C2       1.0000 0.00000  0.00000  0.50000  Biso   1.000  C 
  P1       1.0000 0.74800  0.50500  0.25000  Biso   1.000  P 
  P2       1.0000 0.25200  0.49500  0.75000  Biso   1.000  P 
  V1       1.0000 0.36500  0.26900  0.05430  Biso   1.000  V 
  V2       1.0000 0.06490  0.87000  0.25000  Biso   1.000  V 
  V3       1.0000 0.36500  0.26900  0.44600  Biso   1.000  V 
  V4       1.0000 0.63500  0.73100  0.55400  Biso   1.000  V 
  V5       1.0000 0.93500  0.13000  0.75000  Biso   1.000  V 
  V6       1.0000 0.63500  0.73100  0.94600  Biso   1.000  V 
