data_image0
_cell_length_a       3.77108
_cell_length_b       5.62501
_cell_length_c       7.06064
_cell_angle_alpha    91.4062
_cell_angle_beta     105.273
_cell_angle_gamma    90.2811

_symmetry_space_group_name_H-M    "P 1"
_symmetry_int_tables_number       1

loop_
  _symmetry_equiv_pos_as_xyz
  'x, y, z'

loop_
  _atom_site_label
  _atom_site_occupancy
  _atom_site_fract_x
  _atom_site_fract_y
  _atom_site_fract_z
  _atom_site_thermal_displace_type
  _atom_site_B_iso_or_equiv
  _atom_site_type_symbol
  Au1      1.0000 0.00000  0.00000  0.00000  Biso   1.000  Au
  Eu1      1.0000 0.39400  0.48200  0.21900  Biso   1.000  Eu
  Eu2      1.0000 0.00000  0.00000  0.50000  Biso   1.000  Eu
  Eu3      1.0000 0.60600  0.51800  0.78100  Biso   1.000  Eu
  O1       1.0000 0.84400  0.72400  0.12800  Biso   1.000  O 
  O2       1.0000 0.87500  0.21600  0.19400  Biso   1.000  O 
  O3       1.0000 0.49300  0.73800  0.49200  Biso   1.000  O 
  O4       1.0000 0.50700  0.26200  0.50800  Biso   1.000  O 
  O5       1.0000 0.12500  0.78400  0.80600  Biso   1.000  O 
  O6       1.0000 0.15600  0.27600  0.87200  Biso   1.000  O 
