data_image0
_cell_length_a       6.93712
_cell_length_b       4.08031
_cell_length_c       8.73242
_cell_angle_alpha    90
_cell_angle_beta     108.416
_cell_angle_gamma    90

_symmetry_space_group_name_H-M    "P 1"
_symmetry_int_tables_number       1

loop_
  _symmetry_equiv_pos_as_xyz
  'x, y, z'

loop_
  _atom_site_label
  _atom_site_occupancy
  _atom_site_fract_x
  _atom_site_fract_y
  _atom_site_fract_z
  _atom_site_thermal_displace_type
  _atom_site_B_iso_or_equiv
  _atom_site_type_symbol
  Ga1      1.0000 0.46400  0.25000  0.24800  Biso   1.000  Ga
  Ga2      1.0000 0.53600  0.75000  0.75200  Biso   1.000  Ga
  Ge1      1.0000 0.67700  0.75000  0.30000  Biso   1.000  Ge
  Ge2      1.0000 0.32300  0.25000  0.70000  Biso   1.000  Ge
  N1       1.0000 0.17600  0.25000  0.17100  Biso   1.000  N 
  N2       1.0000 0.82400  0.75000  0.82900  Biso   1.000  N 
  Sr1      1.0000 0.79800  0.25000  0.03400  Biso   1.000  Sr
  Sr2      1.0000 0.18500  0.75000  0.37800  Biso   1.000  Sr
  Sr3      1.0000 0.81500  0.25000  0.62200  Biso   1.000  Sr
  Sr4      1.0000 0.20200  0.75000  0.96600  Biso   1.000  Sr
