data_image0
_cell_length_a       3.93866
_cell_length_b       7.71944
_cell_length_c       7.85817
_cell_angle_alpha    103.951
_cell_angle_beta     104.514
_cell_angle_gamma    90

_symmetry_space_group_name_H-M    "P 1"
_symmetry_int_tables_number       1

loop_
  _symmetry_equiv_pos_as_xyz
  'x, y, z'

loop_
  _atom_site_label
  _atom_site_occupancy
  _atom_site_fract_x
  _atom_site_fract_y
  _atom_site_fract_z
  _atom_site_thermal_displace_type
  _atom_site_B_iso_or_equiv
  _atom_site_type_symbol
  Br1      1.0000 0.14100  0.03470  0.33000  Biso   1.000  Br
  Br2      1.0000 0.18800  0.53500  0.33000  Biso   1.000  Br
  Br3      1.0000 0.86000  0.37200  0.67200  Biso   1.000  Br
  Br4      1.0000 0.81200  0.87200  0.67200  Biso   1.000  Br
  Mo1      1.0000 0.06460  0.99600  0.00093  Biso   1.000  Mo
  Mo2      1.0000 0.93600  0.49600  0.00093  Biso   1.000  Mo
  O1       1.0000 0.00924  0.22400  0.00066  Biso   1.000  O 
  O2       1.0000 0.99100  0.72400  0.00066  Biso   1.000  O 
  O3       1.0000 0.50700  0.97800  0.00118  Biso   1.000  O 
  O4       1.0000 0.49400  0.47800  0.00118  Biso   1.000  O 
