data_image0
_cell_length_a       5.18158
_cell_length_b       6.35939
_cell_length_c       7.02655
_cell_angle_alpha    116.906
_cell_angle_beta     111.636
_cell_angle_gamma    90

_symmetry_space_group_name_H-M    "P 1"
_symmetry_int_tables_number       1

loop_
  _symmetry_equiv_pos_as_xyz
  'x, y, z'

loop_
  _atom_site_label
  _atom_site_occupancy
  _atom_site_fract_x
  _atom_site_fract_y
  _atom_site_fract_z
  _atom_site_thermal_displace_type
  _atom_site_B_iso_or_equiv
  _atom_site_type_symbol
  Ni1      1.0000 0.25000  0.00000  0.00000  Biso   1.000  Ni
  Ni2      1.0000 0.75000  0.00000  0.00000  Biso   1.000  Ni
  Pd1      1.0000 0.60400  0.47000  0.20900  Biso   1.000  Pd
  Pd2      1.0000 0.10400  0.73900  0.20900  Biso   1.000  Pd
  Pd3      1.0000 0.89600  0.26100  0.79100  Biso   1.000  Pd
  Pd4      1.0000 0.39600  0.53000  0.79100  Biso   1.000  Pd
  Te1      1.0000 0.14700  0.36700  0.29300  Biso   1.000  Te
  Te2      1.0000 0.64700  0.92600  0.29300  Biso   1.000  Te
  Te3      1.0000 0.35300  0.07410  0.70700  Biso   1.000  Te
  Te4      1.0000 0.85300  0.63300  0.70700  Biso   1.000  Te
