data_image0
_cell_length_a       2.95202
_cell_length_b       5.13207
_cell_length_c       7.28442
_cell_angle_alpha    90
_cell_angle_beta     90
_cell_angle_gamma    73.2854

_symmetry_space_group_name_H-M    "P 1"
_symmetry_int_tables_number       1

loop_
  _symmetry_equiv_pos_as_xyz
  'x, y, z'

loop_
  _atom_site_label
  _atom_site_occupancy
  _atom_site_fract_x
  _atom_site_fract_y
  _atom_site_fract_z
  _atom_site_thermal_displace_type
  _atom_site_B_iso_or_equiv
  _atom_site_type_symbol
  C1       1.0000 0.00000  0.00000  0.00000  Biso   1.000  C 
  C2       1.0000 0.00000  0.00000  0.50000  Biso   1.000  C 
  Cr1      1.0000 0.37100  0.25800  0.05630  Biso   1.000  Cr
  Cr2      1.0000 0.05600  0.88800  0.25000  Biso   1.000  Cr
  Cr3      1.0000 0.37100  0.25800  0.44400  Biso   1.000  Cr
  Cr4      1.0000 0.62900  0.74200  0.55600  Biso   1.000  Cr
  Cr5      1.0000 0.94400  0.11200  0.75000  Biso   1.000  Cr
  Cr6      1.0000 0.62900  0.74200  0.94400  Biso   1.000  Cr
  P1       1.0000 0.74100  0.51700  0.25000  Biso   1.000  P 
  P2       1.0000 0.25900  0.48300  0.75000  Biso   1.000  P 
