data_image0
_cell_length_a       7.66161
_cell_length_b       7.66161
_cell_length_c       4.44499
_cell_angle_alpha    90
_cell_angle_beta     90
_cell_angle_gamma    90

_symmetry_space_group_name_H-M    "P 1"
_symmetry_int_tables_number       1

loop_
  _symmetry_equiv_pos_as_xyz
  'x, y, z'

loop_
  _atom_site_label
  _atom_site_occupancy
  _atom_site_fract_x
  _atom_site_fract_y
  _atom_site_fract_z
  _atom_site_thermal_displace_type
  _atom_site_B_iso_or_equiv
  _atom_site_type_symbol
  Ce1      1.0000 0.32000  0.18000  0.50000  Biso   1.000  Ce
  Ce2      1.0000 0.82000  0.32000  0.50000  Biso   1.000  Ce
  Ce3      1.0000 0.18000  0.68000  0.50000  Biso   1.000  Ce
  Ce4      1.0000 0.68000  0.82000  0.50000  Biso   1.000  Ce
  Ge1      1.0000 0.61800  0.11800  0.00000  Biso   1.000  Ge
  Ge2      1.0000 0.11800  0.38200  0.00000  Biso   1.000  Ge
  Ge3      1.0000 0.88200  0.61800  0.00000  Biso   1.000  Ge
  Ge4      1.0000 0.38200  0.88200  0.00000  Biso   1.000  Ge
  In1      1.0000 0.00000  0.00000  0.00000  Biso   1.000  In
  In2      1.0000 0.50000  0.50000  0.00000  Biso   1.000  In
