data_image0
_cell_length_a       5.62413
_cell_length_b       5.62413
_cell_length_c       6.05144
_cell_angle_alpha    108.682
_cell_angle_beta     108.682
_cell_angle_gamma    108.102

_symmetry_space_group_name_H-M    "P 1"
_symmetry_int_tables_number       1

loop_
  _symmetry_equiv_pos_as_xyz
  'x, y, z'

loop_
  _atom_site_label
  _atom_site_occupancy
  _atom_site_fract_x
  _atom_site_fract_y
  _atom_site_fract_z
  _atom_site_thermal_displace_type
  _atom_site_B_iso_or_equiv
  _atom_site_type_symbol
  B1       1.0000 0.68400  0.31600  0.00000  Biso   1.000  B 
  B2       1.0000 0.31600  0.68400  0.00000  Biso   1.000  B 
  B3       1.0000 0.93400  0.06590  0.50000  Biso   1.000  B 
  B4       1.0000 0.56600  0.43400  0.50000  Biso   1.000  B 
  Os1      1.0000 0.61300  0.11300  0.22600  Biso   1.000  Os
  Os2      1.0000 0.63700  0.63700  0.27500  Biso   1.000  Os
  Os3      1.0000 0.36300  0.36300  0.72500  Biso   1.000  Os
  Os4      1.0000 0.88700  0.38700  0.77400  Biso   1.000  Os
  Th1      1.0000 0.00000  0.00000  0.00000  Biso   1.000  Th
  Th2      1.0000 0.25000  0.75000  0.50000  Biso   1.000  Th
