data_image0
_cell_length_a       7.56137
_cell_length_b       7.56137
_cell_length_c       3.77048
_cell_angle_alpha    90
_cell_angle_beta     90
_cell_angle_gamma    90

_symmetry_space_group_name_H-M    "P 1"
_symmetry_int_tables_number       1

loop_
  _symmetry_equiv_pos_as_xyz
  'x, y, z'

loop_
  _atom_site_label
  _atom_site_occupancy
  _atom_site_fract_x
  _atom_site_fract_y
  _atom_site_fract_z
  _atom_site_thermal_displace_type
  _atom_site_B_iso_or_equiv
  _atom_site_type_symbol
  Cu1      1.0000 0.61900  0.11900  0.00000  Biso   1.000  Cu
  Cu2      1.0000 0.11900  0.38100  0.00000  Biso   1.000  Cu
  Cu3      1.0000 0.88100  0.61900  0.00000  Biso   1.000  Cu
  Cu4      1.0000 0.38100  0.88100  0.00000  Biso   1.000  Cu
  Gd1      1.0000 0.32500  0.17500  0.50000  Biso   1.000  Gd
  Gd2      1.0000 0.82500  0.32500  0.50000  Biso   1.000  Gd
  Gd3      1.0000 0.17500  0.67500  0.50000  Biso   1.000  Gd
  Gd4      1.0000 0.67500  0.82500  0.50000  Biso   1.000  Gd
  In1      1.0000 0.00000  0.00000  0.00000  Biso   1.000  In
  In2      1.0000 0.50000  0.50000  0.00000  Biso   1.000  In
