data_image0
_cell_length_a       5.97322
_cell_length_b       5.97322
_cell_length_c       6.00799
_cell_angle_alpha    119.809
_cell_angle_beta     119.809
_cell_angle_gamma    90

_symmetry_space_group_name_H-M    "P 1"
_symmetry_int_tables_number       1

loop_
  _symmetry_equiv_pos_as_xyz
  'x, y, z'

loop_
  _atom_site_label
  _atom_site_occupancy
  _atom_site_fract_x
  _atom_site_fract_y
  _atom_site_fract_z
  _atom_site_thermal_displace_type
  _atom_site_B_iso_or_equiv
  _atom_site_type_symbol
  Ba1      1.0000 0.75000  0.25000  0.50000  Biso   1.000  Ba
  Ba2      1.0000 0.25000  0.75000  0.50000  Biso   1.000  Ba
  Nb1      1.0000 0.50000  0.50000  0.00000  Biso   1.000  Nb
  O1       1.0000 0.69800  0.22600  0.00000  Biso   1.000  O 
  O2       1.0000 0.22600  0.30200  0.00000  Biso   1.000  O 
  O3       1.0000 0.77400  0.69800  0.00000  Biso   1.000  O 
  O4       1.0000 0.30200  0.77400  0.00000  Biso   1.000  O 
  O5       1.0000 0.73600  0.73600  0.47200  Biso   1.000  O 
  O6       1.0000 0.26400  0.26400  0.52800  Biso   1.000  O 
  Tb1      1.0000 0.00000  0.00000  0.00000  Biso   1.000  Tb
