data_image0
_cell_length_a       4.07634
_cell_length_b       7.13825
_cell_length_c       9.07299
_cell_angle_alpha    102.969
_cell_angle_beta     102.982
_cell_angle_gamma    106.59

_symmetry_space_group_name_H-M    "P 1"
_symmetry_int_tables_number       1

loop_
  _symmetry_equiv_pos_as_xyz
  'x, y, z'

loop_
  _atom_site_label
  _atom_site_occupancy
  _atom_site_fract_x
  _atom_site_fract_y
  _atom_site_fract_z
  _atom_site_thermal_displace_type
  _atom_site_B_iso_or_equiv
  _atom_site_type_symbol
  Ba1      1.0000 0.47500  0.65200  0.29900  Biso   1.000  Ba
  Ba2      1.0000 0.52500  0.34800  0.70100  Biso   1.000  Ba
  Cu1      1.0000 0.74300  0.18900  0.29700  Biso   1.000  Cu
  Cu2      1.0000 0.25700  0.81100  0.70300  Biso   1.000  Cu
  S1       1.0000 0.67400  0.28500  0.06350  Biso   1.000  S 
  S2       1.0000 0.16200  0.01740  0.30600  Biso   1.000  S 
  S3       1.0000 0.00000  0.50000  0.50000  Biso   1.000  S 
  S4       1.0000 0.83800  0.98300  0.69400  Biso   1.000  S 
  S5       1.0000 0.32600  0.71500  0.93600  Biso   1.000  S 
  U1       1.0000 0.00000  0.00000  0.00000  Biso   1.000  U 
