data_image0
_cell_length_a       5.49638
_cell_length_b       5.49638
_cell_length_c       6.17926
_cell_angle_alpha    104.487
_cell_angle_beta     104.487
_cell_angle_gamma    115.946

_symmetry_space_group_name_H-M    "P 1"
_symmetry_int_tables_number       1

loop_
  _symmetry_equiv_pos_as_xyz
  'x, y, z'

loop_
  _atom_site_label
  _atom_site_occupancy
  _atom_site_fract_x
  _atom_site_fract_y
  _atom_site_fract_z
  _atom_site_thermal_displace_type
  _atom_site_B_iso_or_equiv
  _atom_site_type_symbol
  B1       1.0000 0.68100  0.31900  0.00000  Biso   1.000  B 
  B2       1.0000 0.31900  0.68100  0.00000  Biso   1.000  B 
  B3       1.0000 0.43100  0.56900  0.50000  Biso   1.000  B 
  B4       1.0000 0.06920  0.93100  0.50000  Biso   1.000  B 
  Ir1      1.0000 0.12300  0.62300  0.24500  Biso   1.000  Ir
  Ir2      1.0000 0.62700  0.62700  0.25500  Biso   1.000  Ir
  Ir3      1.0000 0.37300  0.37300  0.74500  Biso   1.000  Ir
  Ir4      1.0000 0.37700  0.87700  0.75500  Biso   1.000  Ir
  Tb1      1.0000 0.00000  0.00000  0.00000  Biso   1.000  Tb
  Tb2      1.0000 0.75000  0.25000  0.50000  Biso   1.000  Tb
