data_image0
_cell_length_a       6.11889
_cell_length_b       6.11889
_cell_length_c       3.18262
_cell_angle_alpha    90
_cell_angle_beta     90
_cell_angle_gamma    90

_symmetry_space_group_name_H-M    "P 1"
_symmetry_int_tables_number       1

loop_
  _symmetry_equiv_pos_as_xyz
  'x, y, z'

loop_
  _atom_site_label
  _atom_site_occupancy
  _atom_site_fract_x
  _atom_site_fract_y
  _atom_site_fract_z
  _atom_site_thermal_displace_type
  _atom_site_B_iso_or_equiv
  _atom_site_type_symbol
  B1       1.0000 0.61000  0.11000  0.00000  Biso   1.000  B 
  B2       1.0000 0.11000  0.39000  0.00000  Biso   1.000  B 
  B3       1.0000 0.89000  0.61000  0.00000  Biso   1.000  B 
  B4       1.0000 0.39000  0.89000  0.00000  Biso   1.000  B 
  Mo1      1.0000 0.32600  0.17400  0.50000  Biso   1.000  Mo
  Mo2      1.0000 0.82600  0.32600  0.50000  Biso   1.000  Mo
  Mo3      1.0000 0.17400  0.67400  0.50000  Biso   1.000  Mo
  Mo4      1.0000 0.67400  0.82600  0.50000  Biso   1.000  Mo
  Ta1      1.0000 0.00000  0.00000  0.00000  Biso   1.000  Ta
  Ta2      1.0000 0.50000  0.50000  0.00000  Biso   1.000  Ta
