data_image0
_cell_length_a       7.18604
_cell_length_b       7.18604
_cell_length_c       3.64698
_cell_angle_alpha    90
_cell_angle_beta     90
_cell_angle_gamma    90

_symmetry_space_group_name_H-M    "P 1"
_symmetry_int_tables_number       1

loop_
  _symmetry_equiv_pos_as_xyz
  'x, y, z'

loop_
  _atom_site_label
  _atom_site_occupancy
  _atom_site_fract_x
  _atom_site_fract_y
  _atom_site_fract_z
  _atom_site_thermal_displace_type
  _atom_site_B_iso_or_equiv
  _atom_site_type_symbol
  In1      1.0000 0.00000  0.00000  0.00000  Biso   1.000  In
  In2      1.0000 0.50000  0.50000  0.00000  Biso   1.000  In
  Ni1      1.0000 0.62800  0.12800  0.00000  Biso   1.000  Ni
  Ni2      1.0000 0.12800  0.37200  0.00000  Biso   1.000  Ni
  Ni3      1.0000 0.87200  0.62800  0.00000  Biso   1.000  Ni
  Ni4      1.0000 0.37200  0.87200  0.00000  Biso   1.000  Ni
  Np1      1.0000 0.33000  0.17000  0.50000  Biso   1.000  Np
  Np2      1.0000 0.83000  0.33000  0.50000  Biso   1.000  Np
  Np3      1.0000 0.17000  0.67000  0.50000  Biso   1.000  Np
  Np4      1.0000 0.67000  0.83000  0.50000  Biso   1.000  Np
