data_image0
_cell_length_a       4.61135
_cell_length_b       4.71508
_cell_length_c       13.2845
_cell_angle_alpha    90
_cell_angle_beta     80.005
_cell_angle_gamma    90

_symmetry_space_group_name_H-M    "P 1"
_symmetry_int_tables_number       1

loop_
  _symmetry_equiv_pos_as_xyz
  'x, y, z'

loop_
  _atom_site_label
  _atom_site_occupancy
  _atom_site_fract_x
  _atom_site_fract_y
  _atom_site_fract_z
  _atom_site_thermal_displace_type
  _atom_site_B_iso_or_equiv
  _atom_site_type_symbol
  La1      1.0000 0.00000  0.00000  0.00000  Biso   1.000  La
  La2      1.0000 0.81500  0.00000  0.37100  Biso   1.000  La
  La3      1.0000 0.18500  0.00000  0.62900  Biso   1.000  La
  Sn1      1.0000 0.50000  0.50000  0.00000  Biso   1.000  Sn
  Sn2      1.0000 0.40500  0.00000  0.19000  Biso   1.000  Sn
  Sn3      1.0000 0.90500  0.50000  0.19100  Biso   1.000  Sn
  Sn4      1.0000 0.28900  0.50000  0.42200  Biso   1.000  Sn
  Sn5      1.0000 0.71100  0.50000  0.57800  Biso   1.000  Sn
  Sn6      1.0000 0.09530  0.50000  0.80900  Biso   1.000  Sn
  Sn7      1.0000 0.59500  0.00000  0.81000  Biso   1.000  Sn
