data_image0
_cell_length_a       5.8151
_cell_length_b       5.92484
_cell_length_c       8.25316
_cell_angle_alpha    103.147
_cell_angle_beta     90
_cell_angle_gamma    119.389

_symmetry_space_group_name_H-M    "P 1"
_symmetry_int_tables_number       1

loop_
  _symmetry_equiv_pos_as_xyz
  'x, y, z'

loop_
  _atom_site_label
  _atom_site_occupancy
  _atom_site_fract_x
  _atom_site_fract_y
  _atom_site_fract_z
  _atom_site_thermal_displace_type
  _atom_site_B_iso_or_equiv
  _atom_site_type_symbol
  Eu1      1.0000 0.79300  0.29600  0.14700  Biso   1.000  Eu
  Eu2      1.0000 0.49800  0.70400  0.35300  Biso   1.000  Eu
  Eu3      1.0000 0.50200  0.29600  0.64700  Biso   1.000  Eu
  Eu4      1.0000 0.20700  0.70400  0.85300  Biso   1.000  Eu
  In1      1.0000 0.15000  0.00000  0.25000  Biso   1.000  In
  In2      1.0000 0.85000  0.00000  0.75000  Biso   1.000  In
  Pd1      1.0000 0.27300  0.27000  0.00407  Biso   1.000  Pd
  Pd2      1.0000 0.00242  0.73000  0.49600  Biso   1.000  Pd
  Pd3      1.0000 0.99800  0.27000  0.50400  Biso   1.000  Pd
  Pd4      1.0000 0.72700  0.73000  0.99600  Biso   1.000  Pd
