data_image0
_cell_length_a       4.13606
_cell_length_b       7.05626
_cell_length_c       10.1276
_cell_angle_alpha    91.6103
_cell_angle_beta     90
_cell_angle_gamma    107.042

_symmetry_space_group_name_H-M    "P 1"
_symmetry_int_tables_number       1

loop_
  _symmetry_equiv_pos_as_xyz
  'x, y, z'

loop_
  _atom_site_label
  _atom_site_occupancy
  _atom_site_fract_x
  _atom_site_fract_y
  _atom_site_fract_z
  _atom_site_thermal_displace_type
  _atom_site_B_iso_or_equiv
  _atom_site_type_symbol
  Bi1      1.0000 0.78900  0.57800  0.19000  Biso   1.000  Bi
  Bi2      1.0000 0.21100  0.42200  0.81000  Biso   1.000  Bi
  I1       1.0000 0.13500  0.27000  0.43000  Biso   1.000  I 
  I2       1.0000 0.86500  0.73000  0.57000  Biso   1.000  I 
  Mn1      1.0000 0.50000  0.00000  0.00000  Biso   1.000  Mn
  Mn2      1.0000 0.50000  0.00000  0.50000  Biso   1.000  Mn
  Se1      1.0000 0.13400  0.26900  0.05800  Biso   1.000  Se
  Se2      1.0000 0.43000  0.86000  0.24300  Biso   1.000  Se
  Se3      1.0000 0.57000  0.14000  0.75700  Biso   1.000  Se
  Se4      1.0000 0.86600  0.73100  0.94200  Biso   1.000  Se
