data_image0
_cell_length_a       5.5516
_cell_length_b       5.5516
_cell_length_c       6.15529
_cell_angle_alpha    105.117
_cell_angle_beta     105.117
_cell_angle_gamma    114.942

_symmetry_space_group_name_H-M    "P 1"
_symmetry_int_tables_number       1

loop_
  _symmetry_equiv_pos_as_xyz
  'x, y, z'

loop_
  _atom_site_label
  _atom_site_occupancy
  _atom_site_fract_x
  _atom_site_fract_y
  _atom_site_fract_z
  _atom_site_thermal_displace_type
  _atom_site_B_iso_or_equiv
  _atom_site_type_symbol
  B1       1.0000 0.68000  0.32000  0.00000  Biso   1.000  B 
  B2       1.0000 0.32000  0.68000  0.00000  Biso   1.000  B 
  B3       1.0000 0.43000  0.57000  0.50000  Biso   1.000  B 
  B4       1.0000 0.06980  0.93000  0.50000  Biso   1.000  B 
  Ir1      1.0000 0.12100  0.62100  0.24300  Biso   1.000  Ir
  Ir2      1.0000 0.62900  0.62900  0.25700  Biso   1.000  Ir
  Ir3      1.0000 0.37100  0.37100  0.74300  Biso   1.000  Ir
  Ir4      1.0000 0.37900  0.87900  0.75700  Biso   1.000  Ir
  Sm1      1.0000 0.00000  0.00000  0.00000  Biso   1.000  Sm
  Sm2      1.0000 0.75000  0.25000  0.50000  Biso   1.000  Sm
